//
//********************************
// A demonstration of cyme xml to Gridlab-D input
// created by: Vaibhav Donde
//

clock{
	timestamp '2000-07-17 0:00:00';
	stoptime '2000-07-18 0:00:00';
}
#set profiler=1


//********************************
// modules
//********************************
module tape;
module powerflow{
	solver_method FBS;
	default_maximum_voltage_error 1e-9;
};


//*********************************************
// Conductor Objects
//*********************************************
// OHCond_715_AAC_C
object overhead_line_conductor {
	name OHCond_715_AAC_C;
	resistance 0.1324968876;
	geometric_mean_radius 0.0311920128;
	diameter 0.972998054;
}

// OHCond_NONE
object overhead_line_conductor {
	name OHCond_NONE;
	resistance 0.0;
	geometric_mean_radius 0.0;
	diameter 0.0;
}

// OHCond_715_AAC_I
object overhead_line_conductor {
	name OHCond_715_AAC_I;
	resistance 0.1324968876;
	geometric_mean_radius 0.0311920128;
	diameter 0.972998054;
}

// OHCond_1/0_AAC_C
object overhead_line_conductor {
	name OHCond_1/0_AAC_C;
	resistance 0.8820750323;
	geometric_mean_radius 0.0110971584;
	diameter 0.367999264;
}

// OHCond_4/0_CU_C
object overhead_line_conductor {
	name OHCond_4/0_CU_C;
	resistance 0.2807826175;
	geometric_mean_radius 0.015765976;
	diameter 0.521998956;
}

// OHCond_4_CU_C
object overhead_line_conductor {
	name OHCond_4_CU_C;
	resistance 1.4181103321;
	geometric_mean_radius 0.006998208;
	diameter 0.231999536;
}

// OHCond_397_AAC_C
object overhead_line_conductor {
	name OHCond_397_AAC_C;
	resistance 0.2354936969;
	geometric_mean_radius 0.0227941632;
	diameter 0.722998554;
}

// OHCond_1/0_CU_C
object overhead_line_conductor {
	name OHCond_1/0_CU_C;
	resistance 0.5615250025;
	geometric_mean_radius 0.0111371416;
	diameter 0.367999264;
}

// OHCond_4/0_AAC_C
object overhead_line_conductor {
	name OHCond_4/0_AAC_C;
	resistance 0.4406874934;
	geometric_mean_radius 0.015765976;
	diameter 0.521998956;
}

// OHCond_6_CU_I
object overhead_line_conductor {
	name OHCond_6_CU_I;
	resistance 2.2113584416;
	geometric_mean_radius 0.00525866;
	diameter 0.161999676;
}

// OHCond_DEFAULT
object overhead_line_conductor {
	name OHCond_DEFAULT;
	resistance 0.27792611;
	geometric_mean_radius 0.01667552;
	diameter 0.52799107;
}

// OHCond_4/0_CU_I
object overhead_line_conductor {
	name OHCond_4/0_CU_I;
	resistance 0.2807826175;
	geometric_mean_radius 0.015765976;
	diameter 0.521998956;
}

// OHCond_1/0_CU_I
object overhead_line_conductor {
	name OHCond_1/0_CU_I;
	resistance 0.5615250025;
	geometric_mean_radius 0.0111371416;
	diameter 0.367999264;
}

// OHCond_4_ACSR_C
object overhead_line_conductor {
	name OHCond_4_ACSR_C;
	resistance 2.1715395317;
	geometric_mean_radius 0.0524265688;
	diameter 0.2499995;
}

// OHCond_4_CU_I
object overhead_line_conductor {
	name OHCond_4_CU_I;
	resistance 1.4181103321;
	geometric_mean_radius 0.006998208;
	diameter 0.231999536;
}

// OHCond_397_AAC_I
object overhead_line_conductor {
	name OHCond_397_AAC_I;
	resistance 0.2354936969;
	geometric_mean_radius 0.0227941632;
	diameter 0.722998554;
}

// OHCond_2_CU_C
object overhead_line_conductor {
	name OHCond_2_CU_C;
	resistance 0.8920559109;
	geometric_mean_radius 0.0882773952;
	diameter 0.291999416;
}

// OHCond_6_CU_C
object overhead_line_conductor {
	name OHCond_6_CU_C;
	resistance 2.2113584416;
	geometric_mean_radius 0.00525866;
	diameter 0.161999676;
}

// UGCable_700_AL_XLP-CONC-PVC_22KV_3P
object underground_line_conductor {
	name UGCable_700_AL_XLP-CONC-PVC_22KV_3P;
	outer_diameter 0.669290518897;
	conductor_gmr 0.01667552;
	conductor_diameter 0.52799107;
	conductor_resistance 0.27792611;
	neutral_gmr 0.01667552;
	neutral_resistance 0.27792611;
	neutral_diameter 0.52799107;
	neutral_strands 2;
}

// UGCable_1/0_AL_XLP-CONC-PVC_22KV_3P&N
object underground_line_conductor {
	name UGCable_1/0_AL_XLP-CONC-PVC_22KV_3P&N;
	outer_diameter 0.669290518897;
	conductor_gmr 0.01667552;
	conductor_diameter 0.52799107;
	conductor_resistance 0.27792611;
	neutral_gmr 0.01667552;
	neutral_resistance 0.27792611;
	neutral_diameter 0.52799107;
	neutral_strands 2;
}

// UGCable_250_CU_1C_P&L_5KV_3P&N
object underground_line_conductor {
	name UGCable_250_CU_1C_P&L_5KV_3P&N;
	outer_diameter 0.669290518897;
	conductor_gmr 0.01667552;
	conductor_diameter 0.52799107;
	conductor_resistance 0.27792611;
	neutral_gmr 0.01667552;
	neutral_resistance 0.27792611;
	neutral_diameter 0.52799107;
	neutral_strands 2;
}

// UGCable_4/0_AL_XLP-CONC-CIC_22KV_3P&N
object underground_line_conductor {
	name UGCable_4/0_AL_XLP-CONC-CIC_22KV_3P&N;
	outer_diameter 0.669290518897;
	conductor_gmr 0.01667552;
	conductor_diameter 0.52799107;
	conductor_resistance 0.27792611;
	neutral_gmr 0.01667552;
	neutral_resistance 0.27792611;
	neutral_diameter 0.52799107;
	neutral_strands 2;
}

// UGCable_500_CU_EPR-CONC-ENCAP-PE_3P
object underground_line_conductor {
	name UGCable_500_CU_EPR-CONC-ENCAP-PE_3P;
	outer_diameter 0.669290518897;
	conductor_gmr 0.01667552;
	conductor_diameter 0.52799107;
	conductor_resistance 0.27792611;
	neutral_gmr 0.01667552;
	neutral_resistance 0.27792611;
	neutral_diameter 0.52799107;
	neutral_strands 2;
}

// UGCable_2_AL_XLP-CONC-PVC_22KV_1P
object underground_line_conductor {
	name UGCable_2_AL_XLP-CONC-PVC_22KV_1P;
	outer_diameter 0.669290518897;
	conductor_gmr 0.01667552;
	conductor_diameter 0.52799107;
	conductor_resistance 0.27792611;
	neutral_gmr 0.01667552;
	neutral_resistance 0.27792611;
	neutral_diameter 0.52799107;
	neutral_strands 2;
}

// UGCable_2_AL_PEC_22KV_3P
object underground_line_conductor {
	name UGCable_2_AL_PEC_22KV_3P;
	outer_diameter 0.669290518897;
	conductor_gmr 0.01667552;
	conductor_diameter 0.52799107;
	conductor_resistance 0.27792611;
	neutral_gmr 0.01667552;
	neutral_resistance 0.27792611;
	neutral_diameter 0.52799107;
	neutral_strands 2;
}

// UGCable_DEFAULT
object underground_line_conductor {
	name UGCable_DEFAULT;
	outer_diameter 4.3307121811;
	conductor_gmr 0.01667552;
	conductor_diameter 0.52799107;
	conductor_resistance 0.27792611;
	neutral_gmr 0.01667552;
	neutral_resistance 0.27792611;
	neutral_diameter 0.52799107;
	neutral_strands 2;
}

// UGCable_1/0_AL_EPR-CONC-ENCAP-PE_3P
object underground_line_conductor {
	name UGCable_1/0_AL_EPR-CONC-ENCAP-PE_3P;
	outer_diameter 0.669290518897;
	conductor_gmr 0.01667552;
	conductor_diameter 0.52799107;
	conductor_resistance 0.27792611;
	neutral_gmr 0.01667552;
	neutral_resistance 0.27792611;
	neutral_diameter 0.52799107;
	neutral_strands 2;
}

// UGCable_4_CU_1C_P&L_5KV_1P&N
object underground_line_conductor {
	name UGCable_4_CU_1C_P&L_5KV_1P&N;
	outer_diameter 0.669290518897;
	conductor_gmr 0.01667552;
	conductor_diameter 0.52799107;
	conductor_resistance 0.27792611;
	neutral_gmr 0.01667552;
	neutral_resistance 0.27792611;
	neutral_diameter 0.52799107;
	neutral_strands 2;
}

// UGCable_1/0_AL_EPR-CONC-ENCAP-PE_1P
object underground_line_conductor {
	name UGCable_1/0_AL_EPR-CONC-ENCAP-PE_1P;
	outer_diameter 0.669290518897;
	conductor_gmr 0.01667552;
	conductor_diameter 0.52799107;
	conductor_resistance 0.27792611;
	neutral_gmr 0.01667552;
	neutral_resistance 0.27792611;
	neutral_diameter 0.52799107;
	neutral_strands 2;
}

// UGCable_2_AL_XLP-CONC-PVC_22KV_3P
object underground_line_conductor {
	name UGCable_2_AL_XLP-CONC-PVC_22KV_3P;
	outer_diameter 0.669290518897;
	conductor_gmr 0.01667552;
	conductor_diameter 0.52799107;
	conductor_resistance 0.27792611;
	neutral_gmr 0.01667552;
	neutral_resistance 0.27792611;
	neutral_diameter 0.52799107;
	neutral_strands 2;
}

// UGCable_4/0_AL_XLP-CONC-PVC_22KV_3P
object underground_line_conductor {
	name UGCable_4/0_AL_XLP-CONC-PVC_22KV_3P;
	outer_diameter 0.669290518897;
	conductor_gmr 0.01667552;
	conductor_diameter 0.52799107;
	conductor_resistance 0.27792611;
	neutral_gmr 0.01667552;
	neutral_resistance 0.27792611;
	neutral_diameter 0.52799107;
	neutral_strands 2;
}

// UGCable_1000_AL_XLP-CONC-PVC_22KV_3P
object underground_line_conductor {
	name UGCable_1000_AL_XLP-CONC-PVC_22KV_3P;
	outer_diameter 0.669290518897;
	conductor_gmr 0.01667552;
	conductor_diameter 0.52799107;
	conductor_resistance 0.27792611;
	neutral_gmr 0.01667552;
	neutral_resistance 0.27792611;
	neutral_diameter 0.52799107;
	neutral_strands 2;
}

// UGCable_2_AL_PEC_15KV_3P
object underground_line_conductor {
	name UGCable_2_AL_PEC_15KV_3P;
	outer_diameter 0.669290518897;
	conductor_gmr 0.01667552;
	conductor_diameter 0.52799107;
	conductor_resistance 0.27792611;
	neutral_gmr 0.01667552;
	neutral_resistance 0.27792611;
	neutral_diameter 0.52799107;
	neutral_strands 2;
}

// UGCable_500_CU_XLP-PVC_15KV_3P&N
object underground_line_conductor {
	name UGCable_500_CU_XLP-PVC_15KV_3P&N;
	outer_diameter 0.669290518897;
	conductor_gmr 0.01667552;
	conductor_diameter 0.52799107;
	conductor_resistance 0.27792611;
	neutral_gmr 0.01667552;
	neutral_resistance 0.27792611;
	neutral_diameter 0.52799107;
	neutral_strands 2;
}

// UGCable_2_CU_RO&N_5KV_1P&N
object underground_line_conductor {
	name UGCable_2_CU_RO&N_5KV_1P&N;
	outer_diameter 0.669290518897;
	conductor_gmr 0.01667552;
	conductor_diameter 0.52799107;
	conductor_resistance 0.27792611;
	neutral_gmr 0.01667552;
	neutral_resistance 0.27792611;
	neutral_diameter 0.52799107;
	neutral_strands 2;
}

//*********************************************
// Line spacing objects
//*********************************************
// OHSpacing_HORIZONTAL_2P_88
object line_spacing {
	name OHSpacing_HORIZONTAL_2P_88;
	distance_AB 7.3332408792;
	distance_BC 7.3332408792;
	distance_AC 7.3332408792;
	distance_AN 9.9998784;
	distance_BN 9.9998784;
	distance_CN 9.9998784;
}

// UGSpacing_1000_AL_XLP-CONC-PVC_22KV_3P
object line_spacing {
	name UGSpacing_1000_AL_XLP-CONC-PVC_22KV_3P;
	distance_AB 0.147636;
	distance_BC 0.147636;
	distance_AC 0.295272;
}

// UGSpacing_4/0_AL_XLP-CONC-PVC_22KV_3P
object line_spacing {
	name UGSpacing_4/0_AL_XLP-CONC-PVC_22KV_3P;
	distance_AB 0.147636;
	distance_BC 0.147636;
	distance_AC 0.295272;
}

// OHSpacing_HORIZONTAL_1P_56
object line_spacing {
	name OHSpacing_HORIZONTAL_1P_56;
	distance_AB 4.66660992;
	distance_BC 4.66660992;
	distance_AC 4.66660992;
	distance_AN 6.99991488;
	distance_BN 6.99991488;
	distance_CN 6.99991488;
}

// OHSpacing_HORIZONTAL_1P_52
object line_spacing {
	name OHSpacing_HORIZONTAL_1P_52;
	distance_AB 4.3332773592;
	distance_BC 4.3332773592;
	distance_AC 4.3332773592;
	distance_AN 6.6665888808;
	distance_BN 6.6665888808;
	distance_CN 6.6665888808;
}

// UGSpacing_2_CU_RO&N_5KV_1P&N
object line_spacing {
	name UGSpacing_2_CU_RO&N_5KV_1P&N;
	distance_AB 0.0;
	distance_BC 0.0;
	distance_AC 0.0;
}

// UGSpacing_1/0_AL_EPR-CONC-ENCAP-PE_3P
object line_spacing {
	name UGSpacing_1/0_AL_EPR-CONC-ENCAP-PE_3P;
	distance_AB 0.147636;
	distance_BC 0.147636;
	distance_AC 0.295272;
}

// UGSpacing_2_AL_PEC_22KV_3P
object line_spacing {
	name UGSpacing_2_AL_PEC_22KV_3P;
	distance_AB 0.147636;
	distance_BC 0.147636;
	distance_AC 0.295272;
}

// UGSpacing_1/0_AL_XLP-CONC-PVC_22KV_3P&N
object line_spacing {
	name UGSpacing_1/0_AL_XLP-CONC-PVC_22KV_3P&N;
	distance_AB 0.147636;
	distance_BC 0.147636;
	distance_AC 0.295272;
}

// UGSpacing_1/0_AL_EPR-CONC-ENCAP-PE_1P
object line_spacing {
	name UGSpacing_1/0_AL_EPR-CONC-ENCAP-PE_1P;
	distance_AB 0.0;
	distance_BC 0.0;
	distance_AC 0.0;
}

// OHSpacing_HORIZONTAL_3P_88
object line_spacing {
	name OHSpacing_HORIZONTAL_3P_88;
	distance_AB 7.3332408792;
	distance_BC 7.3332408792;
	distance_AC 7.3332408792;
	distance_AN 9.9998784;
	distance_BN 9.9998784;
	distance_CN 9.9998784;
}

// OHSpacing_HORIZONTAL_3P_45
object line_spacing {
	name OHSpacing_HORIZONTAL_3P_45;
	distance_AB 3.7499544;
	distance_BC 3.7499544;
	distance_AC 3.7499544;
	distance_AN 3.7499544;
	distance_BN 3.7499544;
	distance_CN 3.7499544;
}

// UGSpacing_DEFAULT
object line_spacing {
	name UGSpacing_DEFAULT;
	distance_AB 0.0;
	distance_BC 0.0;
	distance_AC 0.0;
}

// UGSpacing_500_CU_EPR-CONC-ENCAP-PE_3P
object line_spacing {
	name UGSpacing_500_CU_EPR-CONC-ENCAP-PE_3P;
	distance_AB 0.147636;
	distance_BC 0.147636;
	distance_AC 0.295272;
}

// UGSpacing_4_CU_1C_P&L_5KV_1P&N
object line_spacing {
	name UGSpacing_4_CU_1C_P&L_5KV_1P&N;
	distance_AB 0.0;
	distance_BC 0.0;
	distance_AC 0.0;
}

// OHSpacing_TRIANGULAR_3P_45
object line_spacing {
	name OHSpacing_TRIANGULAR_3P_45;
	distance_AB 3.7499544;
	distance_BC 3.7499544;
	distance_AC 3.7499544;
	distance_AN 4.9999392;
	distance_BN 4.9999392;
	distance_CN 4.9999392;
}

// UGSpacing_2_AL_PEC_15KV_3P
object line_spacing {
	name UGSpacing_2_AL_PEC_15KV_3P;
	distance_AB 0.147636;
	distance_BC 0.147636;
	distance_AC 0.295272;
}

// OHSpacing_HORIZONTAL_3P_39
object line_spacing {
	name OHSpacing_HORIZONTAL_3P_39;
	distance_AB 3.24996048;
	distance_BC 3.24996048;
	distance_AC 3.24996048;
	distance_AN 5.99992704;
	distance_BN 5.99992704;
	distance_CN 5.99992704;
}

// OHSpacing_HORIZONTAL_3P_52
object line_spacing {
	name OHSpacing_HORIZONTAL_3P_52;
	distance_AB 4.3332773592;
	distance_BC 4.3332773592;
	distance_AC 4.3332773592;
	distance_AN 6.6665888808;
	distance_BN 6.6665888808;
	distance_CN 6.6665888808;
}

// UGSpacing_250_CU_1C_P&L_5KV_3P&N
object line_spacing {
	name UGSpacing_250_CU_1C_P&L_5KV_3P&N;
	distance_AB 0.147636;
	distance_BC 0.147636;
	distance_AC 0.295272;
}

// UGSpacing_2_AL_XLP-CONC-PVC_22KV_1P
object line_spacing {
	name UGSpacing_2_AL_XLP-CONC-PVC_22KV_1P;
	distance_AB 0.0;
	distance_BC 0.0;
	distance_AC 0.0;
}

// UGSpacing_2_AL_XLP-CONC-PVC_22KV_3P
object line_spacing {
	name UGSpacing_2_AL_XLP-CONC-PVC_22KV_3P;
	distance_AB 0.147636;
	distance_BC 0.147636;
	distance_AC 0.295272;
}

// OHSpacing_HORIZONTAL_1P_45
object line_spacing {
	name OHSpacing_HORIZONTAL_1P_45;
	distance_AB 3.7499544;
	distance_BC 3.7499544;
	distance_AC 3.7499544;
	distance_AN 5.099937984;
	distance_BN 5.099937984;
	distance_CN 5.099937984;
}

// UGSpacing_4/0_AL_XLP-CONC-CIC_22KV_3P&N
object line_spacing {
	name UGSpacing_4/0_AL_XLP-CONC-CIC_22KV_3P&N;
	distance_AB 0.147636;
	distance_BC 0.147636;
	distance_AC 0.295272;
}

// UGSpacing_500_CU_XLP-PVC_15KV_3P&N
object line_spacing {
	name UGSpacing_500_CU_XLP-PVC_15KV_3P&N;
	distance_AB 0.147636;
	distance_BC 0.147636;
	distance_AC 0.295272;
}

// OHSpacing_HORIZONTAL_1P_88
object line_spacing {
	name OHSpacing_HORIZONTAL_1P_88;
	distance_AB 7.3332408792;
	distance_BC 7.3332408792;
	distance_AC 7.3332408792;
	distance_AN 7.3332408792;
	distance_BN 7.3332408792;
	distance_CN 7.3332408792;
}

// UGSpacing_700_AL_XLP-CONC-PVC_22KV_3P
object line_spacing {
	name UGSpacing_700_AL_XLP-CONC-PVC_22KV_3P;
	distance_AB 0.147636;
	distance_BC 0.147636;
	distance_AC 0.295272;
}

//*********************************************
// Line Config objects
//*********************************************
// L_800046791_LineConfig
object line_configuration {
	name L_800046791_LineConfig;
	conductor_A OHCond_NONE;
	conductor_B OHCond_NONE;
	conductor_C OHCond_6_CU_C;
	conductor_N OHCond_6_CU_C;
	spacing OHSpacing_HORIZONTAL_1P_45;
}

// L_800003393_LineConfig
object line_configuration {
	name L_800003393_LineConfig;
	conductor_A OHCond_6_CU_C;
	conductor_B OHCond_NONE;
	conductor_C OHCond_NONE;
	conductor_N OHCond_6_CU_C;
	spacing OHSpacing_HORIZONTAL_1P_88;
}

// L_800003434_LineConfig
object line_configuration {
	name L_800003434_LineConfig;
	conductor_A OHCond_4/0_CU_C;
	conductor_B OHCond_4/0_CU_C;
	conductor_C OHCond_4/0_CU_C;
	conductor_N OHCond_1/0_CU_C;
	spacing OHSpacing_HORIZONTAL_3P_52;
}

// L_800003405_LineConfig
object line_configuration {
	name L_800003405_LineConfig;
	conductor_A OHCond_4/0_CU_C;
	conductor_B OHCond_4/0_CU_C;
	conductor_C OHCond_4/0_CU_C;
	conductor_N OHCond_1/0_CU_C;
	spacing OHSpacing_HORIZONTAL_3P_45;
}

// L_800046795_LineConfig
object line_configuration {
	name L_800046795_LineConfig;
	conductor_A OHCond_4/0_AAC_C;
	conductor_B OHCond_4/0_AAC_C;
	conductor_C OHCond_4/0_AAC_C;
	conductor_N OHCond_4/0_AAC_C;
	spacing OHSpacing_HORIZONTAL_3P_88;
}

// L_800060820_LineConfig
object line_configuration {
	name L_800060820_LineConfig;
	conductor_A OHCond_6_CU_C;
	conductor_B OHCond_NONE;
	conductor_C OHCond_NONE;
	conductor_N OHCond_6_CU_C;
	spacing OHSpacing_HORIZONTAL_1P_88;
}

// L_800050040_LineConfig
object line_configuration {
	name L_800050040_LineConfig;
	conductor_A OHCond_6_CU_C;
	conductor_B OHCond_6_CU_C;
	conductor_C OHCond_6_CU_C;
	conductor_N OHCond_6_CU_C;
	spacing OHSpacing_HORIZONTAL_3P_45;
}

// L_800048288_LineConfig
object line_configuration {
	name L_800048288_LineConfig;
	conductor_A OHCond_NONE;
	conductor_B OHCond_NONE;
	conductor_C OHCond_6_CU_C;
	conductor_N OHCond_6_CU_C;
	spacing OHSpacing_HORIZONTAL_1P_45;
}

// L_800003411_LineConfig
object line_configuration {
	name L_800003411_LineConfig;
	conductor_A OHCond_4/0_CU_C;
	conductor_B OHCond_4/0_CU_C;
	conductor_C OHCond_4/0_CU_C;
	conductor_N OHCond_1/0_CU_C;
	spacing OHSpacing_HORIZONTAL_3P_45;
}

// L_800045239_LineConfig
object line_configuration {
	name L_800045239_LineConfig;
	conductor_A OHCond_6_CU_C;
	conductor_B OHCond_6_CU_C;
	conductor_C OHCond_6_CU_C;
	conductor_N OHCond_6_CU_C;
	spacing OHSpacing_HORIZONTAL_3P_52;
}

// L_800045240_LineConfig
object line_configuration {
	name L_800045240_LineConfig;
	conductor_A OHCond_6_CU_I;
	conductor_B OHCond_6_CU_I;
	conductor_C OHCond_NONE;
	conductor_N OHCond_6_CU_I;
	spacing OHSpacing_HORIZONTAL_2P_88;
}

// L_800003392_LineConfig
object line_configuration {
	name L_800003392_LineConfig;
	conductor_A OHCond_4/0_CU_C;
	conductor_B OHCond_4/0_CU_C;
	conductor_C OHCond_4/0_CU_C;
	conductor_N OHCond_1/0_CU_C;
	spacing OHSpacing_HORIZONTAL_3P_45;
}

// L_800033512_LineConfig
object line_configuration {
	name L_800033512_LineConfig;
	conductor_A OHCond_715_AAC_I;
	conductor_B OHCond_715_AAC_I;
	conductor_C OHCond_715_AAC_I;
	conductor_N OHCond_397_AAC_I;
	spacing OHSpacing_HORIZONTAL_3P_45;
}

// L_800062336_LineConfig
object line_configuration {
	name L_800062336_LineConfig;
	conductor_A OHCond_1/0_AAC_C;
	conductor_B OHCond_1/0_AAC_C;
	conductor_C OHCond_1/0_AAC_C;
	conductor_N OHCond_1/0_AAC_C;
	spacing OHSpacing_HORIZONTAL_3P_52;
}

// L_800003429_LineConfig
object line_configuration {
	name L_800003429_LineConfig;
	conductor_A OHCond_6_CU_C;
	conductor_B OHCond_6_CU_C;
	conductor_C OHCond_6_CU_C;
	conductor_N OHCond_6_CU_C;
	spacing OHSpacing_HORIZONTAL_3P_45;
}

// L_800045244_LineConfig
object line_configuration {
	name L_800045244_LineConfig;
	conductor_A OHCond_6_CU_C;
	conductor_B OHCond_6_CU_C;
	conductor_C OHCond_NONE;
	conductor_N OHCond_6_CU_C;
	spacing OHSpacing_HORIZONTAL_2P_88;
}

// L_800046794_LineConfig
object line_configuration {
	name L_800046794_LineConfig;
	conductor_A OHCond_4/0_AAC_C;
	conductor_B OHCond_4/0_AAC_C;
	conductor_C OHCond_4/0_AAC_C;
	conductor_N OHCond_1/0_AAC_C;
	spacing OHSpacing_HORIZONTAL_3P_52;
}

// L_800003413_LineConfig
object line_configuration {
	name L_800003413_LineConfig;
	conductor_A OHCond_4/0_CU_C;
	conductor_B OHCond_4/0_CU_C;
	conductor_C OHCond_4/0_CU_C;
	conductor_N OHCond_1/0_CU_C;
	spacing OHSpacing_HORIZONTAL_3P_45;
}

// L_800003373_LineConfig
object line_configuration {
	name L_800003373_LineConfig;
	conductor_A OHCond_6_CU_C;
	conductor_B OHCond_NONE;
	conductor_C OHCond_NONE;
	conductor_N OHCond_6_CU_C;
	spacing OHSpacing_HORIZONTAL_1P_88;
}

// L_800045243_LineConfig
object line_configuration {
	name L_800045243_LineConfig;
	conductor_A OHCond_6_CU_C;
	conductor_B OHCond_6_CU_C;
	conductor_C OHCond_6_CU_C;
	conductor_N OHCond_NONE;
	spacing OHSpacing_HORIZONTAL_3P_39;
}

// L_800003403_LineConfig
object line_configuration {
	name L_800003403_LineConfig;
	conductor_A OHCond_6_CU_C;
	conductor_B OHCond_6_CU_C;
	conductor_C OHCond_NONE;
	conductor_N OHCond_6_CU_C;
	spacing OHSpacing_HORIZONTAL_2P_88;
}

// L_800003421_LineConfig
object line_configuration {
	name L_800003421_LineConfig;
	conductor_A OHCond_1/0_AAC_C;
	conductor_B OHCond_1/0_AAC_C;
	conductor_C OHCond_1/0_AAC_C;
	conductor_N OHCond_1/0_AAC_C;
	spacing OHSpacing_HORIZONTAL_3P_45;
}

// L_800003406_LineConfig
object line_configuration {
	name L_800003406_LineConfig;
	conductor_A OHCond_6_CU_C;
	conductor_B OHCond_6_CU_C;
	conductor_C OHCond_NONE;
	conductor_N OHCond_6_CU_C;
	spacing OHSpacing_HORIZONTAL_2P_88;
}

// L_800046792_LineConfig
object line_configuration {
	name L_800046792_LineConfig;
	conductor_A OHCond_NONE;
	conductor_B OHCond_NONE;
	conductor_C OHCond_4_CU_I;
	conductor_N OHCond_6_CU_I;
	spacing OHSpacing_HORIZONTAL_1P_88;
}

// L_800003427_LineConfig
object line_configuration {
	name L_800003427_LineConfig;
	conductor_A OHCond_6_CU_C;
	conductor_B OHCond_6_CU_C;
	conductor_C OHCond_6_CU_C;
	conductor_N OHCond_6_CU_C;
	spacing OHSpacing_HORIZONTAL_3P_45;
}

// L_800036219_LineConfig
object line_configuration {
	name L_800036219_LineConfig;
	conductor_A OHCond_NONE;
	conductor_B OHCond_NONE;
	conductor_C OHCond_4_CU_C;
	conductor_N OHCond_6_CU_C;
	spacing OHSpacing_HORIZONTAL_1P_88;
}

// L_800003428_LineConfig
object line_configuration {
	name L_800003428_LineConfig;
	conductor_A OHCond_4_ACSR_C;
	conductor_B OHCond_4_ACSR_C;
	conductor_C OHCond_4_ACSR_C;
	conductor_N OHCond_4_ACSR_C;
	spacing OHSpacing_HORIZONTAL_3P_45;
}

// L_800026328_LineConfig
object line_configuration {
	name L_800026328_LineConfig;
	conductor_A OHCond_6_CU_C;
	conductor_B OHCond_6_CU_C;
	conductor_C OHCond_6_CU_C;
	conductor_N OHCond_6_CU_C;
	spacing OHSpacing_HORIZONTAL_3P_45;
}

// L_800007005_LineConfig
object line_configuration {
	name L_800007005_LineConfig;
	conductor_A OHCond_715_AAC_C;
	conductor_B OHCond_715_AAC_C;
	conductor_C OHCond_715_AAC_C;
	conductor_N OHCond_397_AAC_C;
	spacing OHSpacing_TRIANGULAR_3P_45;
}

// L_800043868_LineConfig
object line_configuration {
	name L_800043868_LineConfig;
	conductor_A OHCond_6_CU_C;
	conductor_B OHCond_NONE;
	conductor_C OHCond_NONE;
	conductor_N OHCond_6_CU_C;
	spacing OHSpacing_HORIZONTAL_1P_88;
}

// L_800003389_LineConfig
object line_configuration {
	name L_800003389_LineConfig;
	conductor_A OHCond_1/0_AAC_C;
	conductor_B OHCond_1/0_AAC_C;
	conductor_C OHCond_1/0_AAC_C;
	conductor_N OHCond_1/0_AAC_C;
	spacing OHSpacing_HORIZONTAL_3P_45;
}

// L_800003387_LineConfig
object line_configuration {
	name L_800003387_LineConfig;
	conductor_A OHCond_4/0_CU_C;
	conductor_B OHCond_4/0_CU_C;
	conductor_C OHCond_4/0_CU_C;
	conductor_N OHCond_1/0_CU_C;
	spacing OHSpacing_HORIZONTAL_3P_45;
}

// L_800003422_LineConfig
object line_configuration {
	name L_800003422_LineConfig;
	conductor_A OHCond_6_CU_C;
	conductor_B OHCond_6_CU_C;
	conductor_C OHCond_6_CU_C;
	conductor_N OHCond_6_CU_C;
	spacing OHSpacing_HORIZONTAL_3P_45;
}

// L_800003377_LineConfig
object line_configuration {
	name L_800003377_LineConfig;
	conductor_A OHCond_4_ACSR_C;
	conductor_B OHCond_NONE;
	conductor_C OHCond_NONE;
	conductor_N OHCond_4_ACSR_C;
	spacing OHSpacing_HORIZONTAL_1P_88;
}

// L_800003388_LineConfig
object line_configuration {
	name L_800003388_LineConfig;
	conductor_A OHCond_4/0_CU_C;
	conductor_B OHCond_4/0_CU_C;
	conductor_C OHCond_4/0_CU_C;
	conductor_N OHCond_1/0_CU_C;
	spacing OHSpacing_HORIZONTAL_3P_45;
}

// L_800003378_LineConfig
object line_configuration {
	name L_800003378_LineConfig;
	conductor_A OHCond_4/0_CU_C;
	conductor_B OHCond_4/0_CU_C;
	conductor_C OHCond_4/0_CU_C;
	conductor_N OHCond_1/0_CU_C;
	spacing OHSpacing_HORIZONTAL_3P_45;
}

// L_800003418_LineConfig
object line_configuration {
	name L_800003418_LineConfig;
	conductor_A OHCond_1/0_AAC_C;
	conductor_B OHCond_1/0_AAC_C;
	conductor_C OHCond_1/0_AAC_C;
	conductor_N OHCond_1/0_AAC_C;
	spacing OHSpacing_HORIZONTAL_3P_45;
}

// L_800056706_LineConfig
object line_configuration {
	name L_800056706_LineConfig;
	conductor_A OHCond_715_AAC_C;
	conductor_B OHCond_715_AAC_C;
	conductor_C OHCond_715_AAC_C;
	conductor_N OHCond_397_AAC_C;
	spacing OHSpacing_TRIANGULAR_3P_45;
}

// L_800045248_LineConfig
object line_configuration {
	name L_800045248_LineConfig;
	conductor_A OHCond_6_CU_C;
	conductor_B OHCond_6_CU_C;
	conductor_C OHCond_6_CU_C;
	conductor_N OHCond_6_CU_C;
	spacing OHSpacing_HORIZONTAL_3P_52;
}

// L_800026329_LineConfig
object line_configuration {
	name L_800026329_LineConfig;
	conductor_A OHCond_1/0_AAC_C;
	conductor_B OHCond_1/0_AAC_C;
	conductor_C OHCond_1/0_AAC_C;
	conductor_N OHCond_1/0_AAC_C;
	spacing OHSpacing_HORIZONTAL_3P_45;
}

// L_800003401_LineConfig
object line_configuration {
	name L_800003401_LineConfig;
	conductor_A OHCond_6_CU_C;
	conductor_B OHCond_6_CU_C;
	conductor_C OHCond_6_CU_C;
	conductor_N OHCond_6_CU_C;
	spacing OHSpacing_HORIZONTAL_3P_52;
}

// L_800003419_LineConfig
object line_configuration {
	name L_800003419_LineConfig;
	conductor_A OHCond_6_CU_C;
	conductor_B OHCond_6_CU_C;
	conductor_C OHCond_6_CU_C;
	conductor_N OHCond_6_CU_C;
	spacing OHSpacing_HORIZONTAL_3P_52;
}

// L_800045251_LineConfig
object line_configuration {
	name L_800045251_LineConfig;
	conductor_A OHCond_1/0_CU_C;
	conductor_B OHCond_1/0_CU_C;
	conductor_C OHCond_1/0_CU_C;
	conductor_N OHCond_2_CU_C;
	spacing OHSpacing_HORIZONTAL_3P_45;
}

// L_800028308_LineConfig
object line_configuration {
	name L_800028308_LineConfig;
	conductor_A OHCond_4/0_AAC_C;
	conductor_B OHCond_4/0_AAC_C;
	conductor_C OHCond_4/0_AAC_C;
	conductor_N OHCond_NONE;
	spacing OHSpacing_HORIZONTAL_3P_52;
}

// L_800033511_LineConfig
object line_configuration {
	name L_800033511_LineConfig;
	conductor_A OHCond_715_AAC_I;
	conductor_B OHCond_715_AAC_I;
	conductor_C OHCond_715_AAC_I;
	conductor_N OHCond_397_AAC_I;
	spacing OHSpacing_HORIZONTAL_3P_45;
}

// L_800009591_LineConfig
object line_configuration {
	name L_800009591_LineConfig;
	conductor_A OHCond_6_CU_C;
	conductor_B OHCond_6_CU_C;
	conductor_C OHCond_6_CU_C;
	conductor_N OHCond_6_CU_C;
	spacing OHSpacing_HORIZONTAL_3P_52;
}

// L_800003385_LineConfig
object line_configuration {
	name L_800003385_LineConfig;
	conductor_A OHCond_6_CU_C;
	conductor_B OHCond_NONE;
	conductor_C OHCond_NONE;
	conductor_N OHCond_6_CU_C;
	spacing OHSpacing_HORIZONTAL_1P_88;
}

// L_800056496_LineConfig
object line_configuration {
	name L_800056496_LineConfig;
	conductor_A OHCond_4/0_CU_C;
	conductor_B OHCond_4/0_CU_C;
	conductor_C OHCond_4/0_CU_C;
	conductor_N OHCond_1/0_CU_C;
	spacing OHSpacing_HORIZONTAL_3P_45;
}

// L_800003381_LineConfig
object line_configuration {
	name L_800003381_LineConfig;
	conductor_A OHCond_4/0_CU_C;
	conductor_B OHCond_4/0_CU_C;
	conductor_C OHCond_4/0_CU_C;
	conductor_N OHCond_1/0_CU_C;
	spacing OHSpacing_HORIZONTAL_3P_45;
}

// L_800045245_LineConfig
object line_configuration {
	name L_800045245_LineConfig;
	conductor_A OHCond_6_CU_C;
	conductor_B OHCond_6_CU_C;
	conductor_C OHCond_NONE;
	conductor_N OHCond_6_CU_C;
	spacing OHSpacing_HORIZONTAL_2P_88;
}

// L_800054495_LineConfig
object line_configuration {
	name L_800054495_LineConfig;
	conductor_A OHCond_4/0_CU_C;
	conductor_B OHCond_4/0_CU_C;
	conductor_C OHCond_4/0_CU_C;
	conductor_N OHCond_1/0_CU_C;
	spacing OHSpacing_HORIZONTAL_3P_45;
}

// L_800003432_LineConfig
object line_configuration {
	name L_800003432_LineConfig;
	conductor_A OHCond_4_ACSR_C;
	conductor_B OHCond_NONE;
	conductor_C OHCond_NONE;
	conductor_N OHCond_4_ACSR_C;
	spacing OHSpacing_HORIZONTAL_1P_88;
}

// L_800003412_LineConfig
object line_configuration {
	name L_800003412_LineConfig;
	conductor_A OHCond_6_CU_C;
	conductor_B OHCond_NONE;
	conductor_C OHCond_NONE;
	conductor_N OHCond_6_CU_C;
	spacing OHSpacing_HORIZONTAL_1P_88;
}

// L_800045246_LineConfig
object line_configuration {
	name L_800045246_LineConfig;
	conductor_A OHCond_6_CU_C;
	conductor_B OHCond_6_CU_C;
	conductor_C OHCond_NONE;
	conductor_N OHCond_6_CU_C;
	spacing OHSpacing_HORIZONTAL_2P_88;
}

// L_800003400_LineConfig
object line_configuration {
	name L_800003400_LineConfig;
	conductor_A OHCond_6_CU_C;
	conductor_B OHCond_6_CU_C;
	conductor_C OHCond_6_CU_C;
	conductor_N OHCond_6_CU_C;
	spacing OHSpacing_HORIZONTAL_3P_39;
}

// L_800003423_LineConfig
object line_configuration {
	name L_800003423_LineConfig;
	conductor_A OHCond_1/0_AAC_C;
	conductor_B OHCond_1/0_AAC_C;
	conductor_C OHCond_1/0_AAC_C;
	conductor_N OHCond_1/0_AAC_C;
	spacing OHSpacing_HORIZONTAL_3P_52;
}

// L_800028301_LineConfig
object line_configuration {
	name L_800028301_LineConfig;
	conductor_A OHCond_NONE;
	conductor_B OHCond_NONE;
	conductor_C OHCond_6_CU_C;
	conductor_N OHCond_6_CU_C;
	spacing OHSpacing_HORIZONTAL_1P_45;
}

// L_800025897_LineConfig
object line_configuration {
	name L_800025897_LineConfig;
	conductor_A OHCond_NONE;
	conductor_B OHCond_NONE;
	conductor_C OHCond_6_CU_C;
	conductor_N OHCond_6_CU_C;
	spacing OHSpacing_HORIZONTAL_1P_45;
}

// L_800061442_LineConfig
object line_configuration {
	name L_800061442_LineConfig;
	conductor_A OHCond_1/0_AAC_C;